electric-grid/physical/synthetic/synAustinTD/models/syn-austin-D_only-v03/P4U/base/opendss/p4uhs12_1247/Master.dss
Clear

New Circuit.substation_p4uhs12_69 bus1=p4uhs12_69 pu=1.0 basekV=69.0 R1=1e-05 X1=1e-05 R0=1e-05 X0=1e-05

Redirect Transformers.dss
Redirect p4uhs12_1247--p4udt5377/Transformers.dss
Redirect p4uhs12_1247--p4udt20601/Transformers.dss
Redirect p4uhs12_1247--p4udt22081/Transformers.dss
Redirect Regulators.dss
Redirect p4uhs12_1247--p4udt5377/Loads.dss
Redirect p4uhs12_1247--p4udt20601/Loads.dss
Redirect p4uhs12_1247--p4udt22081/Loads.dss
Redirect LineCodes.dss
Redirect p4uhs12_1247--p4udt5377/LineCodes.dss
Redirect p4uhs12_1247--p4udt20601/LineCodes.dss
Redirect p4uhs12_1247--p4udt22081/LineCodes.dss
Redirect Lines.dss
Redirect p4uhs12_1247--p4udt5377/Lines.dss
Redirect p4uhs12_1247--p4udt20601/Lines.dss
Redirect p4uhs12_1247--p4udt22081/Lines.dss
Redirect p4uhs12_1247--p4udt5377/Capacitors.dss
Redirect p4uhs12_1247--p4udt20601/Capacitors.dss
Redirect p4uhs12_1247--p4udt22081/Capacitors.dss

Set Voltagebases=[0.2080002494301389, 0.48, 7.199560000000001, 12.47, 69.0]

Calcvoltagebases

Buscoords Buscoords.dss

Solve